Version 4
SHEET 1 880 680
WIRE -544 -192 -624 -192
WIRE -480 -192 -544 -192
WIRE -304 -192 -400 -192
WIRE -144 -192 -304 -192
WIRE -304 -176 -304 -192
WIRE -144 -176 -144 -192
WIRE -304 -32 -304 -96
WIRE -144 -32 -144 -96
WIRE -144 -32 -304 -32
WIRE -544 16 -544 -192
WIRE -368 16 -544 16
WIRE -144 16 -144 -32
WIRE -144 16 -288 16
WIRE -144 32 -144 16
FLAG -704 -192 Working
IOPIN -704 -192 BiDir
FLAG -144 32 Counter
IOPIN -144 32 BiDir
SYMBOL voltage -496 -192 R270
WINDOW 0 32 56 VTop 2
WINDOW 3 -32 56 VBottom 2
WINDOW 123 0 0 Left 0
WINDOW 39 0 0 Left 0
SYMATTR InstName V1
SYMATTR Value 0
SYMBOL res -320 -192 R0
SYMATTR InstName R1
SYMATTR Value 100e6
SYMBOL Misc\\Epoly -144 -192 R0
SYMATTR InstName E1
SYMATTR Value LAPLACE {I(V1)} = {1/(s**{alpha}*{C}+1u)}
SYMBOL res -608 -208 R90
WINDOW 0 0 56 VBottom 2
WINDOW 3 32 56 VTop 2
SYMATTR InstName R2
SYMATTR Value {RS}
SYMBOL res -272 0 R90
WINDOW 0 0 56 VBottom 2
WINDOW 3 32 56 VTop 2
SYMATTR InstName R3
SYMATTR Value {RCT}
TEXT -808 -472 Left 2 !.param alpha = 1
TEXT -808 -432 Left 2 !.param C = 1E-9
TEXT -808 -400 Left 2 !.param RCT = 100k
TEXT -808 -360 Left 2 !.param RS = 2k
TEXT -860 186 Left 2 !.tran .001
